REMARK  22 active torsions:
REMARK  status: ('A' for Active; 'I' for Inactive)
REMARK    1  A    between atoms: C1B_37  and  N9A_46 
REMARK    2  A    between atoms: C2B_36  and  O2B_44 
REMARK    3  A    between atoms: C3B_35  and  O3B_39 
REMARK    4  A    between atoms: O3B_39  and  P3B_40 
REMARK    5  A    between atoms: C4B_34  and  C5B_33 
REMARK    6  A    between atoms: C5B_33  and  O5B_32 
REMARK    7  A    between atoms: O5B_32  and  P1A_1 
REMARK    8  A    between atoms: O3A_4  and  P1A_1 
REMARK    9  A    between atoms: O3A_4  and  P2A_5 
REMARK   10  A    between atoms: O6A_8  and  P2A_5 
REMARK   11  A    between atoms: CCP_9  and  O6A_8 
REMARK   12  A    between atoms: CAP_13  and  CBP_10 
REMARK   13  A    between atoms: CBP_10  and  CCP_9 
REMARK   14  A    between atoms: C9P_14  and  CAP_13 
REMARK   15  A    between atoms: CAP_13  and  OAP_30 
REMARK       I    between atoms: C9P_14  and  N8P_16 
REMARK   16  A    between atoms: C7P_18  and  N8P_16 
REMARK   17  A    between atoms: C6P_19  and  C7P_18 
REMARK   18  A    between atoms: C5P_20  and  C6P_19 
REMARK       I    between atoms: C5P_20  and  N4P_22 
REMARK   19  A    between atoms: C3P_24  and  N4P_22 
REMARK   20  A    between atoms: C2P_25  and  C3P_24 
REMARK   21  A    between atoms: C2P_25  and  S1P_26 
REMARK   22  A    between atoms: C_27  and  S1P_26 
ROOT
HETATM    1  P1A ACO A 201       6.459  37.788 100.969  1.00 25.52     0.417 P 
HETATM    2  O1A ACO A 201       7.143  38.632 102.021  1.00 23.33    -0.624 OA
HETATM    3  O2A ACO A 201       4.962  37.962 101.071  1.00 25.09    -0.624 OA
ENDROOT
BRANCH   1   4
HETATM    4  O3A ACO A 201       6.849  36.209 101.211  1.00 23.94    -0.180 OA
BRANCH   4   5
HETATM    5  P2A ACO A 201       5.880  35.129 101.982  1.00 23.12     0.417 P 
HETATM    6  O4A ACO A 201       4.786  34.655 101.057  1.00 24.33    -0.624 OA
HETATM    7  O5A ACO A 201       5.270  35.784 103.198  1.00 21.36    -0.624 OA
BRANCH   5   8
HETATM    8  O6A ACO A 201       6.818  33.856 102.445  1.00 25.67    -0.289 OA
BRANCH   8   9
HETATM    9  CCP ACO A 201       7.880  33.464 101.619  1.00 20.73     0.193 C 
BRANCH   9  10
HETATM   10  CBP ACO A 201       8.121  31.980 101.880  1.00 26.50     0.009 C 
HETATM   11  CDP ACO A 201       8.682  31.818 103.293  1.00 24.79     0.020 C 
HETATM   12  CEP ACO A 201       9.119  31.439 100.859  1.00 21.51     0.020 C 
BRANCH  10  13
HETATM   13  CAP ACO A 201       6.773  31.269 101.730  1.00 24.42     0.219 C 
BRANCH  13  14
HETATM   14  C9P ACO A 201       6.784  29.822 102.230  1.00 25.76     0.247 C 
HETATM   15  O9P ACO A 201       6.523  29.578 103.364  1.00 26.36    -0.271 OA
HETATM   16  N8P ACO A 201       7.084  28.748 101.296  1.00 24.34    -0.358 N 
HETATM   17  H8P ACO A 201       7.295  28.974 100.324  1.00  0.00     0.162 HD
BRANCH  16  18
HETATM   18  C7P ACO A 201       7.089  27.358 101.722  1.00 22.79     0.132 C 
BRANCH  18  19
HETATM   19  C6P ACO A 201       8.186  27.092 102.751  1.00 25.13     0.122 C 
BRANCH  19  20
HETATM   20  C5P ACO A 201       9.578  27.429 102.219  1.00 31.71     0.219 C 
HETATM   21  O5P ACO A 201       9.899  27.081 101.130  1.00 29.60    -0.274 OA
HETATM   22  N4P ACO A 201      10.504  28.175 103.052  1.00 24.25    -0.360 N 
HETATM   23  H4P ACO A 201      10.226  28.485 103.983  1.00  0.00     0.162 HD
BRANCH  22  24
HETATM   24  C3P ACO A 201      11.830  28.474 102.543  1.00 24.72     0.133 C 
BRANCH  24  25
HETATM   25  C2P ACO A 201      12.709  27.246 102.794  1.00 26.87     0.102 C 
BRANCH  25  26
HETATM   26  S1P ACO A 201      14.474  27.618 102.568  1.00 26.86    -0.091 SA
BRANCH  26  27
HETATM   27  C   ACO A 201      15.110  28.526 104.008  1.00 32.68     0.182 C 
HETATM   28  O   ACO A 201      16.271  28.749 104.114  1.00 34.25    -0.286 OA
HETATM   29  CH3 ACO A 201      14.145  29.004 105.086  1.00 15.76     0.104 C 
ENDBRANCH  26  27
ENDBRANCH  25  26
ENDBRANCH  24  25
ENDBRANCH  22  24
ENDBRANCH  19  20
ENDBRANCH  18  19
ENDBRANCH  16  18
ENDBRANCH  13  14
BRANCH  13  30
HETATM   30  OAP ACO A 201       6.419  31.267 100.377  1.00 27.22    -0.385 OA
HETATM   31  HAP ACO A 201       6.412  32.165 100.067  1.00  0.00     0.210 HD
ENDBRANCH  13  30
ENDBRANCH  10  13
ENDBRANCH   9  10
ENDBRANCH   8   9
ENDBRANCH   5   8
ENDBRANCH   4   5
ENDBRANCH   1   4
BRANCH   1  32
HETATM   32  O5B ACO A 201       6.959  38.223  99.457  1.00 30.90    -0.287 OA
BRANCH  32  33
HETATM   33  C5B ACO A 201       8.054  39.081  99.298  1.00 27.76     0.216 C 
BRANCH  33  34
HETATM   34  C4B ACO A 201       8.521  38.962  97.864  1.00 34.87     0.180 C 
HETATM   35  C3B ACO A 201       7.209  38.915  96.842  1.00 33.06     0.199 C 
HETATM   36  C2B ACO A 201       7.828  38.305  95.631  1.00 34.56     0.199 C 
HETATM   37  C1B ACO A 201       8.854  37.289  96.307  1.00 30.70     0.262 C 
HETATM   38  O4B ACO A 201       9.161  37.859  97.693  1.00 30.96    -0.353 OA
BRANCH  35  39
HETATM   39  O3B ACO A 201       6.673  40.262  96.555  1.00 36.31    -0.272 OA
BRANCH  39  40
HETATM   40  P3B ACO A 201       5.151  40.363  95.923  1.00 39.46     0.422 P 
HETATM   41  O7A ACO A 201       5.160  39.860  94.499  1.00 41.36    -0.617 OA
HETATM   42  O8A ACO A 201       4.208  39.510  96.744  1.00 29.22    -0.617 OA
HETATM   43  O9A ACO A 201       4.690  41.801  95.947  1.00 37.95    -0.617 OA
ENDBRANCH  39  40
ENDBRANCH  35  39
BRANCH  36  44
HETATM   44  O2B ACO A 201       8.575  39.350  94.837  1.00 35.31    -0.388 OA
HETATM   45  H2B ACO A 201       7.964  39.955  94.434  1.00  0.00     0.210 HD
ENDBRANCH  36  44
BRANCH  37  46
HETATM   46  N9A ACO A 201       8.275  36.101  96.389  1.00 31.83    -0.297 N 
HETATM   47  C4A ACO A 201       8.240  35.178  95.407  1.00 33.09     0.142 A 
HETATM   48  N3A ACO A 201       8.722  35.113  94.156  1.00 28.38    -0.336 N 
HETATM   49  C5A ACO A 201       7.530  34.102  95.907  1.00 29.46     0.119 A 
HETATM   50  C2A ACO A 201       8.521  34.036  93.414  1.00 28.36     0.183 A 
HETATM   51  H3A ACO A 201       9.247  35.900  93.774  1.00  0.00     0.168 HD
HETATM   52  N1A ACO A 201       7.843  32.990  93.868  1.00 26.05    -0.339 N 
HETATM   53  C6A ACO A 201       7.333  32.972  95.091  1.00 25.44     0.148 A 
HETATM   54  H1A ACO A 201       7.711  32.181  93.261  1.00  0.00     0.167 HD
HETATM   55  N6A ACO A 201       6.591  31.822  95.578  1.00 28.13    -0.080 NA
HETATM   56  N7A ACO A 201       7.163  34.416  97.160  1.00 28.05    -0.346 N 
HETATM   57  C8A ACO A 201       7.620  35.627  97.438  1.00 29.48     0.188 A 
HETATM   58  H7A ACO A 201       6.624  33.822  97.790  1.00  0.00     0.167 HD
ENDBRANCH  37  46
ENDBRANCH  33  34
ENDBRANCH  32  33
ENDBRANCH   1  32
TORSDOF 22
